# generated using pymatgen
data_Mg6Cu16Si7
_symmetry_space_group_name_H-M   'P 1'
_cell_length_a   8.18714560
_cell_length_b   8.18714384
_cell_length_c   8.18714686
_cell_angle_alpha   60.00155739
_cell_angle_beta   60.00157062
_cell_angle_gamma   60.00155293
_symmetry_Int_Tables_number   1
_chemical_formula_structural   Mg6Cu16Si7
_chemical_formula_sum   'Mg6 Cu16 Si7'
_cell_volume   388.05910731
_cell_formula_units_Z   1
loop_
 _symmetry_equiv_pos_site_id
 _symmetry_equiv_pos_as_xyz
  1  'x, y, z'
loop_
 _atom_site_type_symbol
 _atom_site_label
 _atom_site_symmetry_multiplicity
 _atom_site_fract_x
 _atom_site_fract_y
 _atom_site_fract_z
 _atom_site_occupancy
  Mg  Mg0  1  0.29682623  0.70317595  0.29682472  1
  Mg  Mg1  1  0.29682308  0.70317484  0.70317563  1
  Mg  Mg2  1  0.70317587  0.29682631  0.29682546  1
  Mg  Mg3  1  0.70317541  0.70317394  0.29682321  1
  Mg  Mg4  1  0.29682534  0.29682535  0.70317591  1
  Mg  Mg5  1  0.70317458  0.29682410  0.70317396  1
  Cu  Cu6  1  0.12013187  0.12013206  0.12013015  1
  Cu  Cu7  1  0.36040042  0.87986536  0.87986790  1
  Cu  Cu8  1  0.87986709  0.36040115  0.87986705  1
  Cu  Cu9  1  0.87986891  0.87986525  0.36039959  1
  Cu  Cu10  1  0.12013200  0.63960222  0.12013078  1
  Cu  Cu11  1  0.12013162  0.12013218  0.63960257  1
  Cu  Cu12  1  0.63960218  0.12013238  0.12013044  1
  Cu  Cu13  1  0.87986867  0.87986520  0.87986895  1
  Cu  Cu14  1  0.33202734  0.33202951  0.33202778  1
  Cu  Cu15  1  0.99607902  0.66797382  0.66797534  1
  Cu  Cu16  1  0.66797401  0.99607925  0.66797567  1
  Cu  Cu17  1  0.66797371  0.66797437  0.99607978  1
  Cu  Cu18  1  0.33202643  0.00391784  0.33202717  1
  Cu  Cu19  1  0.33202590  0.33202791  0.00391738  1
  Cu  Cu20  1  0.00391838  0.33202750  0.33202539  1
  Cu  Cu21  1  0.66797210  0.66797285  0.66797385  1
  Si  Si22  1  0.00000120  0.99999951  -0.00000015  1
  Si  Si23  1  0.99999934  0.50000053  0.99999945  1
  Si  Si24  1  0.49999992  -0.00000054  -0.00000062  1
  Si  Si25  1  -0.00000005  0.50000060  0.49999990  1
  Si  Si26  1  0.50000023  0.00000003  0.50000073  1
  Si  Si27  1  0.99999953  -0.00000033  0.50000042  1
  Si  Si28  1  0.49999970  0.50000089  0.99999959  1
