# generated using pymatgen
data_Mg5(Si8Pt5)2
_symmetry_space_group_name_H-M   'P 1'
_cell_length_a   8.91240611
_cell_length_b   8.91240620
_cell_length_c   8.91240614
_cell_angle_alpha   59.99961288
_cell_angle_beta   59.99961506
_cell_angle_gamma   59.99961401
_symmetry_Int_Tables_number   1
_chemical_formula_structural   Mg5(Si8Pt5)2
_chemical_formula_sum   'Mg5 Si16 Pt10'
_cell_volume   500.57148922
_cell_formula_units_Z   1
loop_
 _symmetry_equiv_pos_site_id
 _symmetry_equiv_pos_as_xyz
  1  'x, y, z'
loop_
 _atom_site_type_symbol
 _atom_site_label
 _atom_site_symmetry_multiplicity
 _atom_site_fract_x
 _atom_site_fract_y
 _atom_site_fract_z
 _atom_site_occupancy
  Mg  Mg0  1  0.34423449  0.34423460  0.34423455  1
  Mg  Mg1  1  0.96725406  0.34426096  0.34426109  1
  Mg  Mg2  1  0.34426098  0.96725403  0.34426109  1
  Mg  Mg3  1  0.34426094  0.34426109  0.96725405  1
  Mg  Mg4  1  -0.00000297  -0.00000316  -0.00000298  1
  Si  Si5  1  0.67727729  0.95574739  0.95574737  1
  Si  Si6  1  0.57215201  0.57215202  0.28354174  1
  Si  Si7  1  0.57215201  0.28354173  0.57215204  1
  Si  Si8  1  0.28354174  0.57215204  0.57215200  1
  Si  Si9  1  0.57215223  0.57215223  0.57215222  1
  Si  Si10  1  0.41122670  0.95574730  0.95574727  1
  Si  Si11  1  0.41122674  0.95574729  0.67727916  1
  Si  Si12  1  0.41122674  0.67727916  0.95574727  1
  Si  Si13  1  0.95574730  0.95574731  0.41122667  1
  Si  Si14  1  0.95574732  0.41122666  0.95574728  1
  Si  Si15  1  0.95574739  0.95574739  0.67727729  1
  Si  Si16  1  0.67727916  0.95574725  0.41122677  1
  Si  Si17  1  0.95574738  0.67727730  0.95574736  1
  Si  Si18  1  0.95574728  0.41122676  0.67727915  1
  Si  Si19  1  0.67727916  0.41122674  0.95574728  1
  Si  Si20  1  0.95574727  0.67727915  0.41122675  1
  Pt  Pt21  1  0.12662276  0.12662275  0.12662268  1
  Pt  Pt22  1  0.73201279  0.73201274  0.26798612  1
  Pt  Pt23  1  0.26798509  0.26798512  0.73201383  1
  Pt  Pt24  1  0.73201278  0.26798613  0.73201275  1
  Pt  Pt25  1  0.26798617  0.73201280  0.73201272  1
  Pt  Pt26  1  0.73201395  0.26798507  0.26798516  1
  Pt  Pt27  1  0.26798503  0.73201393  0.26798509  1
  Pt  Pt28  1  0.12662144  0.12662149  0.62013530  1
  Pt  Pt29  1  0.12662145  0.62013528  0.12662144  1
  Pt  Pt30  1  0.62013529  0.12662148  0.12662149  1
