# generated using pymatgen
data_SiO2
_symmetry_space_group_name_H-M   'P 1'
_cell_length_a   7.31536827
_cell_length_b   7.31537016
_cell_length_c   7.31536866
_cell_angle_alpha   109.47121921
_cell_angle_beta   109.47122447
_cell_angle_gamma   109.47121930
_symmetry_Int_Tables_number   1
_chemical_formula_structural   SiO2
_chemical_formula_sum   'Si8 O16'
_cell_volume   301.36084270
_cell_formula_units_Z   8
loop_
 _symmetry_equiv_pos_site_id
 _symmetry_equiv_pos_as_xyz
  1  'x, y, z'
loop_
 _atom_site_type_symbol
 _atom_site_label
 _atom_site_symmetry_multiplicity
 _atom_site_fract_x
 _atom_site_fract_y
 _atom_site_fract_z
 _atom_site_occupancy
  Si  Si0  1  0.78249537  0.50000000  0.00000000  1
  Si  Si1  1  0.28249537  0.28249537  0.28249537  1
  Si  Si2  1  0.21750463  0.50000000  -0.00000000  1
  Si  Si3  1  0.71750463  0.71750463  0.71750463  1
  Si  Si4  1  -0.00000000  0.78249537  0.50000000  1
  Si  Si5  1  0.50000000  -0.00000000  0.21750463  1
  Si  Si6  1  0.00000000  0.21750463  0.50000000  1
  Si  Si7  1  0.50000000  0.00000000  0.78249537  1
  O  O8  1  0.75000000  0.68022506  0.93022506  1
  O  O9  1  0.93022506  0.75000000  0.68022506  1
  O  O10  1  0.25000000  0.81977494  0.56977494  1
  O  O11  1  0.43022506  0.75000000  0.18022506  1
  O  O12  1  0.31977494  0.06977494  0.25000000  1
  O  O13  1  -0.00000000  0.50000000  -0.00000000  1
  O  O14  1  0.56977494  0.25000000  0.81977494  1
  O  O15  1  0.18022506  0.43022506  0.75000000  1
  O  O16  1  0.25000000  0.31977494  0.06977494  1
  O  O17  1  0.75000000  0.18022506  0.43022506  1
  O  O18  1  0.68022506  0.93022506  0.75000000  1
  O  O19  1  0.50000000  0.50000000  0.50000000  1
  O  O20  1  0.06977494  0.25000000  0.31977494  1
  O  O21  1  -0.00000000  -0.00000000  0.50000000  1
  O  O22  1  0.50000000  -0.00000000  -0.00000000  1
  O  O23  1  0.81977494  0.56977494  0.25000000  1
