# generated using pymatgen
data_SiO2
_symmetry_space_group_name_H-M   'P 1'
_cell_length_a   12.89843488
_cell_length_b   12.89843488
_cell_length_c   12.89843488
_cell_angle_alpha   109.47122063
_cell_angle_beta   109.47122063
_cell_angle_gamma   109.47122063
_symmetry_Int_Tables_number   1
_chemical_formula_structural   SiO2
_chemical_formula_sum   'Si24 O48'
_cell_volume   1651.92054835
_cell_formula_units_Z   24
loop_
 _symmetry_equiv_pos_site_id
 _symmetry_equiv_pos_as_xyz
  1  'x, y, z'
loop_
 _atom_site_type_symbol
 _atom_site_label
 _atom_site_symmetry_multiplicity
 _atom_site_fract_x
 _atom_site_fract_y
 _atom_site_fract_z
 _atom_site_occupancy
  Si  Si0  1  0.50000000  0.64629708  0.35370292  1
  Si  Si1  1  0.70740583  0.35370292  0.85370292  1
  Si  Si2  1  0.29259417  0.14629708  0.64629708  1
  Si  Si3  1  0.85370292  0.14629708  0.50000000  1
  Si  Si4  1  0.35370292  0.85370292  0.70740583  1
  Si  Si5  1  0.64629708  0.29259417  0.14629708  1
  Si  Si6  1  0.14629708  0.50000000  0.85370292  1
  Si  Si7  1  0.35370292  0.50000000  0.64629708  1
  Si  Si8  1  0.64629708  0.35370292  0.50000000  1
  Si  Si9  1  0.14629708  0.64629708  0.29259417  1
  Si  Si10  1  0.85370292  0.70740583  0.35370292  1
  Si  Si11  1  0.50000000  0.85370292  0.14629708  1
  Si  Si12  1  0.50000000  0.35370292  0.64629708  1
  Si  Si13  1  0.29259417  0.64629708  0.14629708  1
  Si  Si14  1  0.70740583  0.85370292  0.35370292  1
  Si  Si15  1  0.14629708  0.85370292  0.50000000  1
  Si  Si16  1  0.64629708  0.14629708  0.29259417  1
  Si  Si17  1  0.35370292  0.70740583  0.85370292  1
  Si  Si18  1  0.85370292  0.50000000  0.14629708  1
  Si  Si19  1  0.64629708  0.50000000  0.35370292  1
  Si  Si20  1  0.35370292  0.64629708  0.50000000  1
  Si  Si21  1  0.85370292  0.35370292  0.70740583  1
  Si  Si22  1  0.14629708  0.29259417  0.64629708  1
  Si  Si23  1  0.50000000  0.14629708  0.85370292  1
  O  O24  1  0.46492865  0.66990634  0.46492865  1
  O  O25  1  0.79502332  0.46492865  -0.00000000  1
  O  O26  1  0.20497668  0.20497668  0.66990634  1
  O  O27  1  0.79502332  -0.00000000  0.46492865  1
  O  O28  1  0.46492865  -0.00000000  0.79502332  1
  O  O29  1  0.66990634  0.20497668  0.20497668  1
  O  O30  1  0.00000000  0.46492865  0.79502332  1
  O  O31  1  0.46492865  0.46492865  0.66990634  1
  O  O32  1  0.66990634  0.46492865  0.46492865  1
  O  O33  1  -0.00000000  0.20497668  0.53507135  1
  O  O34  1  0.53507135  0.20497668  -0.00000000  1
  O  O35  1  -0.00000000  0.53507135  0.20497668  1
  O  O36  1  0.79502332  0.79502332  0.33009366  1
  O  O37  1  0.20497668  0.53507135  0.00000000  1
  O  O38  1  0.33009366  0.79502332  0.79502332  1
  O  O39  1  0.53507135  -0.00000000  0.20497668  1
  O  O40  1  0.79502332  0.33009366  0.79502332  1
  O  O41  1  0.20497668  -0.00000000  0.53507135  1
  O  O42  1  0.00000000  0.79502332  0.46492865  1
  O  O43  1  0.33009366  0.53507135  0.53507135  1
  O  O44  1  0.20497668  0.66990634  0.20497668  1
  O  O45  1  0.53507135  0.33009366  0.53507135  1
  O  O46  1  0.46492865  0.79502332  0.00000000  1
  O  O47  1  0.53507135  0.53507135  0.33009366  1
  O  O48  1  0.61965199  0.77716466  0.39681565  1
  O  O49  1  0.61965199  0.39681565  0.77716466  1
  O  O50  1  0.38034801  0.15751168  0.77716466  1
  O  O51  1  0.84248832  0.22283534  0.61965199  1
  O  O52  1  0.39681565  0.77716466  0.61965199  1
  O  O53  1  0.77716466  0.38034801  0.15751168  1
  O  O54  1  0.22283534  0.61965199  0.84248832  1
  O  O55  1  0.39681565  0.61965199  0.77716466  1
  O  O56  1  0.77716466  0.39681565  0.61965199  1
  O  O57  1  0.77716466  0.15751168  0.38034801  1
  O  O58  1  0.60318435  0.38034801  0.22283534  1
  O  O59  1  0.22283534  0.60318435  0.38034801  1
  O  O60  1  0.84248832  0.61965199  0.22283534  1
  O  O61  1  0.15751168  0.38034801  0.77716466  1
  O  O62  1  0.22283534  0.84248832  0.61965199  1
  O  O63  1  0.38034801  0.77716466  0.15751168  1
  O  O64  1  0.61965199  0.22283534  0.84248832  1
  O  O65  1  0.38034801  0.22283534  0.60318435  1
  O  O66  1  0.77716466  0.61965199  0.39681565  1
  O  O67  1  0.22283534  0.38034801  0.60318435  1
  O  O68  1  0.15751168  0.77716466  0.38034801  1
  O  O69  1  0.60318435  0.22283534  0.38034801  1
  O  O70  1  0.61965199  0.84248832  0.22283534  1
  O  O71  1  0.38034801  0.60318435  0.22283534  1
